resultados/_temp_alt5_1p10/LineSummary.csv
line,maxCurrentA,normAmps,maxLoadingPct,meanLoadingPct,overloadHours
rbt_1607347,93.11814003482318,124.95,74.52432175656118,25.728406792542206,0
sbt_7584,93.11815014518355,163.8,56.84868751232206,19.6261580538491,0
sbt_22840,93.11814551496869,163.8,56.84868468557307,19.626157977796364,0
rbt_630758,31.216442707188,76.65,40.72595265125636,17.43061573608724,0
rbt_637576,24.79026286164633,61.95,40.01656636262523,14.612005752332985,0
rbt_632607,44.94058240247976,124.95,35.96685266304903,16.929742528301144,0
rbt_606147,25.45787061640113,76.65,33.21313844279338,12.358055259375528,0
rbt_1130761,27.90518703423182,90.3,30.90275419073291,14.543022453379793,0
rbt_637918,17.77714749233815,61.95,28.695960439609603,11.278653260432018,0
rbt_605836,23.68842595305079,90.3,26.233029848339743,12.354954859631817,0
rbt_637360,16.19277527556906,61.95,26.1384588790461,12.28036246186516,0
rbt_1607350,22.0328100015648,90.3,24.399568108045187,8.76668141589107,0
rbt_626476,13.993904881746328,61.95,22.589031286111908,10.628014174007905,0
rbt_606126,13.575506865121325,61.95,21.913651113997297,7.792058825002297,0
rbt_1633671,13.228821701309787,61.95,21.35403018774784,10.055602949080141,0
rbt_3405844,18.96686646184993,90.3,21.00428179606858,7.240425589115243,0
rbt_606143,14.885089113359317,76.65,19.419555268570537,6.8661343984992795,0
rbt_1627323,13.77298992265696,76.65,17.968675698182597,8.453735049174862,0
sbt_34378,22.61177272321791,128.1,17.651657082917964,8.661008999917934,0
sbt_34379,22.541181035286627,128.1,17.596550378834213,8.536674440256325,0
rbt_635862,10.788267384209858,61.95,17.41447519646466,5.974688683307078,0
rbt_3435739,13.327731792857545,76.65,17.387777942410366,8.201435443372942,0
rbt_637397,10.741173414474382,61.95,17.338455874857758,8.149196651939835,0
rbt_605816,10.231699874519165,61.95,16.51606113723836,6.214276630571995,0
sbt_24791,25.45789192320633,163.8,15.542058561176026,5.782936753250539,0
sbt_3174,25.457883045222463,163.8,15.542053141161455,5.78293837018622,0
rbt_609688,11.216330846071035,76.65,14.633177881371212,5.328201926231787,0
smt_29422,23.647439640461744,163.8,14.436776337278232,8.79189140733131,0
smt_19119,23.646535970190932,163.8,14.436224646026208,8.792374181665101,0
smt_17184,23.64539259081018,163.8,14.435526612216226,8.791908072384715,0
rbt_1638954,7.865133818590267,61.95,12.695938367377346,5.967717439369895,0
rbt_1607265,11.051139476991391,90.3,12.238249697664886,5.759479538621407,0
rbt_606139,9.340419501572793,76.65,12.185804959651392,4.362319028500038,0
rbt_623004,7.277481033545689,61.95,11.747346301122983,4.57625177297498,0
sbt_11363,18.11612628070582,163.8,11.059906154277058,4.122598312166358,0
sbt_9361,23.688426013658113,216.3,10.951653265676427,5.157893746919182,0
rbt_606121,6.382955870103682,61.95,10.303399306059212,4.841120057540658,0
rbt_1605991,6.1046556391868725,61.95,9.854165680689059,4.632846873187713,0
rbt_1607280,6.055836904300091,61.95,9.775362234544135,4.59403956877543,0
sbt_34393,12.184880880188816,128.1,9.512006932231706,6.253482928892115,0
rbt_635543,5.820729144542677,61.95,9.395850112256138,3.7317094382974445,0
rbt_606114,8.27991263017466,90.3,9.169338460880024,4.309993455011442,0
rbt_627337,8.060102572128896,90.3,8.9259164696887,4.197303784478437,0
rbt_1621994,7.906333326838881,90.3,8.755629376344276,4.114608657589067,0
rbt_626678,7.7256463371074044,90.3,8.555533042200892,4.023528625689415,0
rbt_606150,5.2573803792964435,61.95,8.48648971637844,3.986832848302235,0
rbt_1607272,7.568304792432738,90.3,8.381289914100485,3.943546833111333,0
rbt_623007,5.170732108159316,61.95,8.346621643517862,3.921669720262614,0
sbt_22748,17.902086889980737,216.3,8.276508039750686,3.8943585000288485,0
sbt_7427,17.90207868303779,216.3,8.276504245509841,3.894354579997593,0
sbt_34383,10.590299150641641,128.1,8.267212451710884,4.869972236386004,0
sbt_34392,10.59029601161488,128.1,8.26721000126064,5.182933913100843,0
sbt_34384,10.576627986033346,128.1,8.256540192063502,3.9882137202153505,0
smt_34713,23.63272528078856,286.65,8.244453263836931,5.0210167829047165,0
smt_34700,23.632576754144107,286.65,8.244401449204295,5.020982639120521,0
smt_34701,23.63222492406757,286.65,8.244278710646284,5.020901779443384,0
smt_34715,23.63192406010007,286.65,8.244173751997234,5.02083265558587,0
smt_34702,23.631626066198578,286.65,8.244069794592214,5.020764211656204,0
smt_34703,23.63121788248328,286.65,8.243927396645136,5.020670492041813,0
smt_34704,23.630727182037916,286.65,8.243756212118583,5.020557877095435,0
smt_34716,23.630420493894544,286.65,8.243649221662148,5.02048752068965,0
smt_34705,23.630112143280225,286.65,8.243541651240267,5.020416804656473,0
smt_34717,23.629744718166727,286.65,8.24341347223678,5.020332569172424,0
smt_34706,23.62937270432547,286.65,8.243283692421235,5.020247313217596,0
smt_34707,23.62893469019665,286.65,8.243130887910919,5.02014697240092,0
smt_34708,23.628526592115158,286.65,8.242988519837837,5.020053524389652,0
smt_34709,23.62799994566878,286.65,8.242804795279532,5.019932987106853,0
smt_34718,23.627706567101903,286.65,8.24270244796857,5.01986586707133,0
smt_34710,23.627419666392807,286.65,8.242602360506822,5.019800248208871,0
smt_34719,23.627119600663388,286.65,8.242497680329109,5.019731638415338,0
smt_34711,23.626820504795916,286.65,8.242393338494999,5.019663270982972,0
smt_34720,23.626479482974688,286.65,8.242274370477826,5.019585345124641,0
smt_34712,23.626164875443962,286.65,8.242164617283782,5.0195134787734945,0
smt_34721,23.6259391296608,286.65,8.242085864176103,5.019461925370466,0
smt_34714,23.62592984770259,286.65,8.242082626095444,5.019459805377323,0
rbt_1630759,6.258704591675107,76.65,8.165302794096682,3.840798670635371,0
rbt_606122,5.054199528390925,61.95,8.15851417012256,3.8347202571275543,0
rbt_1229546,7.336667682989561,90.3,8.124770413055993,3.820914941847643,0
rbt_1638606,5.004860470103147,61.95,8.078870815340029,3.7986307579382275,0
rbt_605905,7.160225566791913,90.3,7.929374935539217,3.7275097509066932,0
rbt_1607283,7.089038466344787,90.3,7.850540937258901,3.693105082801949,0
smt_31417,25.249107296499695,327.6,7.707297709554241,4.716958650683449,0
smt_31416,25.249060870528947,327.6,7.707283538012498,4.7169493090332955,0
smt_31411,25.24904317573136,327.6,7.707278136670133,4.716945749196976,0
smt_31412,25.249023154197893,327.6,7.707272025090932,4.716941720809731,0
smt_31413,25.24890443463849,327.6,7.707235785909185,4.7169178360755515,0
smt_31414,25.248815219301797,327.6,7.7072085529004255,4.716899888802783,0
smt_31415,25.248589156455996,327.6,7.70713954714774,4.716854418637989,0
smt_4387,25.24821739967721,327.6,7.707026068277536,4.716779663676097,0
smt_4863,25.247788458943717,327.6,7.706895133987703,4.716693440868786,0
smt_4693,25.247428605290615,327.6,7.706785288550249,4.7166211311489405,0
smt_4591,25.247099747501814,327.6,7.7066849046098325,4.716555070219906,0
smt_17964,25.24707511850313,327.6,7.706677386600466,4.7082024897580785,0
smt_4627,25.246750754578084,327.6,7.706578374413334,4.716484985943927,0
smt_6826,25.246627643646438,327.6,7.706540794763869,4.708111723296746,0
smt_4527,25.246471611203923,327.6,7.706493165813162,4.716428944585319,0
smt_7012,25.24611111621357,327.6,7.706383124607316,4.70800699520476,0
smt_23134,25.246017824106985,327.6,7.7063546471633035,4.716337871458626,0
smt_22791,25.245648260859493,327.6,7.7062418378691975,4.707913190442081,0
smt_18545,25.24561096088118,327.6,7.706230452039432,4.716256247385115,0
smt_10381,25.24517990832158,327.6,7.706098873114035,4.716169803140042,0
smt_7020,25.24510795208381,327.6,7.70607690845049,4.707803737605508,0
smt_18806,25.24496215139101,327.6,7.706032402744508,4.71612614648586,0
smt_24122,25.24489128447526,327.6,7.706010770596842,4.716111940656506,0
smt_6842,25.244692209375177,327.6,7.705950002861775,4.7077195546765545,0
smt_6830,25.244061517458952,327.6,7.705757483961828,4.707591906849241,0
smt_29390,25.243359231811873,327.6,7.705543111053685,4.7073634387202405,0
smt_31407,25.243302973930106,327.6,7.705525938318103,4.707438478127183,0
smt_31408,25.242838435293546,327.6,7.705384137757493,4.71548764062804,0
smt_17776,25.242748980453534,327.6,7.705356831640272,4.707238786449096,0
smt_10747,25.242127995232202,327.6,7.705167275711905,4.707112010828841,0
smt_18202,25.241588736084697,327.6,7.70500266669252,4.707001976381569,0
smt_17794,25.241088332452897,327.6,7.704849918331165,4.706899917399286,0
smt_29420,25.240779140737832,327.6,7.70475553746576,4.706836879337932,0
smt_22739,25.24059844919729,327.6,7.704700381317853,4.706800047947528,0
smt_17795,25.240002668548296,327.6,7.704518519092886,4.706678648391353,0
smt_29389,25.23933801398555,327.6,7.704315633084721,4.706543290476185,0
smt_19163,25.238765302574855,327.6,7.7041408127517865,4.7064267210329325,0
smt_17961,25.23840029131444,327.6,7.704029392953125,4.706352457758435,0
smt_29388,25.23797931890613,327.6,7.703900890996987,4.7062668388265365,0
smt_17962,25.23746192765914,327.6,7.70374295716091,4.706161653790599,0
rbt_1107340,6.787553313583113,90.3,7.516670336193925,3.5371663407722838,0
rbt_605822,6.786912988901474,90.3,7.515961228019351,3.536983040142587,0
rbt_1626486,6.7849945418502555,90.3,7.513836701938267,3.5308964191375694,0
rbt_1607287,6.780386001473642,90.3,7.50873311348133,3.531868136338806,0
rbt_606132,4.534395962871983,61.95,7.31944465354638,3.439040469125914,0
rbt_623433,6.566355853569129,90.3,7.271711908714429,3.4213403962099984,0
smt_6447,23.704324185635915,327.6,7.235752193417556,4.40880577829943,0
smt_6627,23.703945093836953,327.6,7.235636475530205,4.408730982101001,0
smt_24630,23.703340730235333,327.6,7.235451993356327,4.408611798307565,0
smt_24629,23.702967821868953,327.6,7.23533816296366,4.408538295142108,0
smt_24628,23.70247064935869,327.6,7.235186400903141,4.408440341754241,0
smt_24627,23.702101534324182,327.6,7.235073728426185,4.408367650291129,0
smt_6957,23.701756240280837,327.6,7.234968327314053,4.4082996746366225,0
smt_6431,23.70132651909459,327.6,7.234837154790778,4.408215111688804,0
smt_24626,23.700968908270998,327.6,7.234727993977716,4.408144767098628,0
smt_12228,23.700580090062488,327.6,7.234609307100881,4.408068312805523,0
rbt_626698,6.521565995401473,90.3,7.222110736878708,3.394399271166486,0
smt_6510,23.65453797342804,327.6,7.220554936943846,4.39735280051455,0
smt_19223,23.654013453896702,327.6,7.220394827196795,4.397248479540264,0
smt_22843,23.6535669979703,327.6,7.22025854638898,4.39715972800498,0
smt_6737,23.65317759144421,327.6,7.220139679928024,4.397082350044632,0
smt_24665,23.65267015800288,327.6,7.219984785715164,4.396981564894198,0
smt_24635,23.652145936254197,327.6,7.219824766866361,4.3968774995719,0
smt_24637,23.651603510803646,327.6,7.219659191332004,4.396769878592044,0
smt_24636,23.65107307032779,327.6,7.219497274214831,4.396664692579704,0
smt_19174,23.650590122588785,327.6,7.219349854270081,4.396568973464057,0
smt_6686,23.650020394991664,327.6,7.21917594474715,4.396456114940499,0
smt_19173,23.64906234656661,327.6,7.218883500172957,4.396266479976643,0
smt_19172,23.648738614422303,327.6,7.218784680837088,4.396202442472435,0
smt_6544,23.648385367129226,327.6,7.218676851993047,4.396132590550946,0
smt_6535,23.64786324195684,327.6,7.218517473124798,4.396029390182998,0
smt_24634,23.64672186577994,327.6,7.218169067698395,4.395803982047311,0
smt_24633,23.646314568697182,327.6,7.218044740139555,4.395723608570372,0
smt_24511,23.646023533067385,327.6,7.2179559014247205,4.396082608378073,0
smt_24632,23.645876432000566,327.6,7.217910998779171,4.395637186576976,0
smt_1873,23.64544521432656,327.6,7.217779369452551,4.395552166991538,0
smt_29446,23.64537880945295,327.6,7.217759099344612,4.3959512287499365,0
smt_24631,23.645058823895543,327.6,7.217661423655537,4.395476017319544,0
smt_32671,23.64495360880429,327.6,7.217629306716816,4.39586462864167,0
smt_6527,23.644657400349807,327.6,7.2175388889956675,4.395396936678378,0
smt_6389,23.644484258104868,327.6,7.217486037272547,4.395769078557986,0
smt_24510,23.644469841918017,327.6,7.21748163672711,4.395766144583893,0
smt_24509,23.643970834806037,327.6,7.217329314653857,4.39566460752635,0
smt_24508,23.643533426575996,327.6,7.217195795658118,4.395575645761415,0
smt_6426,23.643139113349235,327.6,7.217075431425285,4.395495481829999,0
smt_6420,23.64273709693731,327.6,7.2169527157928295,4.395413784116594,0
smt_6140,23.642302682646804,327.6,7.2168201106980465,4.3953255390701145,0
smt_6653,23.64188832704629,327.6,7.216693628524508,4.3952414040962084,0
smt_6650,23.641480051720936,327.6,7.216569002356818,4.395158537552415,0
smt_29445,23.641079562114154,327.6,7.2164467527820975,4.395077283873473,0
smt_24507,23.64066756907059,327.6,7.216320991779789,4.394993730009417,0
smt_24506,23.640256980618307,327.6,7.216195659529398,4.394910495039949,0
smt_24505,23.63983328049922,327.6,7.216066324938712,4.394824637646198,0
smt_24459,23.63946973332796,327.6,7.215955352053712,4.394750998319483,0
smt_24458,23.63903184139214,327.6,7.2158216854066355,4.394662335217574,0
smt_24457,23.638591212439042,327.6,7.2156871832842,4.394573156910699,0
smt_24456,23.638186039988856,327.6,7.215563504270102,4.39449118913534,0
smt_24455,23.637770093315474,327.6,7.215436536421084,4.394407076124604,0
smt_24454,23.637371043832324,327.6,7.215314726444542,4.394326412807291,0
smt_19165,23.63693042917701,327.6,7.21518022868651,4.394237384848446,0
smt_17113,23.636469732623826,327.6,7.215039600923023,4.394144341076276,0
smt_6993,23.63545900108031,327.6,7.214731074810839,4.3939403603029445,0
smt_24453,23.634845717898102,327.6,7.214543869932265,4.393816690870056,0
smt_24452,23.634371041198786,327.6,7.2143989747249035,4.393721023593025,0
smt_24451,23.633955020339737,327.6,7.214271984230688,4.3936372152368195,0
smt_24450,23.633562039524588,327.6,7.214152026716906,4.393558080323507,0
smt_6394,23.6331321156432,327.6,7.214020792320879,4.393471541778156,0
smt_24668,23.62591912195441,327.6,7.2118190237956075,4.392025187145283,0
smt_29393,23.625750796569,327.6,7.2117676424203285,4.391991559091104,0
smt_19218,23.624336091923475,327.6,7.2113358033954436,4.391709154546036,0
smt_6502,23.62384380111453,327.6,7.21118553147574,4.391610977331546,0
smt_24667,23.62358653607002,327.6,7.211107001242374,4.3915596905573615,0
smt_6683,23.622894826820158,327.6,7.2108958567827095,4.391421861569401,0
smt_19220,23.622333565679956,327.6,7.210724531648339,4.391310096158668,0
smt_22844,23.621943229526014,327.6,7.210605381418196,4.391232404849352,0
smt_6687,23.621514320520568,327.6,7.210474456813359,4.3911470713789456,0
smt_24666,23.621192767599382,327.6,7.210376302686014,4.391083121155336,0
rbt_1607252,5.494989258275889,76.65,7.168935757698485,3.371340446948583,0
rbt_637356,4.29485290112919,61.95,6.932773044599176,3.2588745200035416,0
rbt_631391,6.181697329164394,90.3,6.84573347637253,5.184560421030336,0
rbt_605855,5.096974496416251,76.65,6.649673185148402,3.1278077610536883,0
rbt_1607255,5.953294246405549,90.3,6.5927954002276286,3.099117929400746,0
rbt_636933,4.956286918860662,76.65,6.466127748024346,3.0425084211773914,0
rbt_605910,3.8934157115273895,61.95,6.284771124337997,2.9523034857008366,0
rbt_627343,5.637202912472578,90.3,6.242749626215479,2.933448595377497,0
sbt_28279,13.228833889966108,216.3,6.115965737386087,2.8800027624059994,0
sbt_20214,13.228826448993303,216.3,6.115962297269211,2.8800030503397775,0
rbt_1607304,3.787461415922578,61.95,6.113739170173653,2.8712837224355092,0
rbt_1607305,5.350649366529126,90.3,5.925414580873894,2.7857742999251633,0
rbt_1607285,3.6348327602447688,61.95,5.86736523041932,2.7549587177137944,0
rbt_606103,4.416401920359024,76.65,5.761776804121362,2.7084107699966236,0
rbt_3405846,4.40197576695948,76.65,5.742955990814716,2.700562904701135,0
rbt_606109,3.5062056076694383,61.95,5.659734637077382,2.6589224456576512,0
rbt_605825,5.10904469369024,90.3,5.657856803643678,2.660458727024013,0
sbt_4580,9.189787711747318,163.8,5.610371008392746,2.639854946193394,0
rbt_1631852,5.057484803165819,90.3,5.600758364524717,2.6325502380667354,0
rbt_605993,5.028181391526663,90.3,5.568307188844588,2.6168963744902953,0
rbt_621999,4.991463926496007,90.3,5.527645544292366,2.5982591254822576,0
rbt_630753,4.988253298413627,90.3,5.5240900314658115,2.5978110312547846,0
sbt_6049,9.014136963613417,163.8,5.503136119422111,2.589630780354015,0
rbt_607384,3.3022692563867886,61.95,5.330539558332185,2.5045416881906584,0
rbt_1607278,4.07923034549652,76.65,5.321892166335968,2.5006513124910286,0
smt_6110,17.41320275696687,327.6,5.315385456949595,3.047791865919466,0
rbt_1628760,4.790529331944731,90.3,5.305126613449315,2.4926775078670453,0
rbt_3433894,4.763268324997664,90.3,5.274937236985232,2.4799990323247605,0
rbt_1607357,4.018383869895183,76.65,5.242509941154837,2.463966177870551,0
smt_24515,16.882366223525143,327.6,5.153347443078492,3.0133670818645473,0
smt_6552,16.881978752862288,327.6,5.15322916754038,3.0132768488563797,0
smt_6549,16.88146679932967,327.6,5.153072893568274,3.0131576857209055,0
smt_23959,16.881019761149545,327.6,5.152936435027334,3.0130536874748413,0
smt_22744,16.88048347134514,327.6,5.1527727324008366,3.012928993624524,0
smt_19175,16.880037445121744,327.6,5.152636582759994,3.0128253434956638,0
smt_19177,16.879529581904947,327.6,5.152481557358042,3.0127073856312605,0
smt_19176,16.878995834859154,327.6,5.152318630909387,3.012583487393498,0
smt_19164,16.878763438093856,327.6,5.15224769172584,3.012529564301923,0
smt_32311,16.87836355306842,327.6,5.152125626699762,3.012436811401294,0
smt_39119,16.87788391154459,327.6,5.151979215978201,3.012325612997568,0
smt_32312,16.877861392998533,327.6,5.151972342185144,3.0123203940286154,0
smt_32310,16.87784302973339,327.6,5.151966736792854,3.0123161378964,0
smt_32309,16.87739919980124,327.6,5.151831257570586,3.012213299885422,0
smt_32314,16.877196285357126,327.6,5.15176931787458,3.012166300346534,0
smt_32313,16.877180877373338,327.6,5.1517646145828255,3.0121627318127273,0
smt_6802,16.87700419255442,327.6,5.151710681487918,3.0666495056474523,0
smt_24514,16.876449971026325,327.6,5.151541505197291,3.0665219163796897,0
smt_24513,16.875874403117983,327.6,5.151365812917577,3.066389493582175,0
smt_19166,16.87542277155498,327.6,5.15122795224511,3.0662856428616454,0
smt_6414,16.874981918337383,327.6,5.151093381665867,3.066184319425512,0
smt_18852,16.874535743154972,327.6,5.1509571865552415,3.066081822046224,0
smt_6403,16.874040683558277,327.6,5.1508060694622335,3.065968152644946,0
smt_1832,16.87361032110397,327.6,5.150674701191688,3.065869387743803,0
smt_1831,16.873191050559164,327.6,5.1505467187299026,3.065773212646238,0
smt_1829,16.872367912669336,327.6,5.15029545563777,3.0655845231944725,0
smt_1828,16.87177206880121,327.6,5.150113574115143,3.0654480421142165,0
smt_6350,16.7850606312663,327.6,5.12364488133892,2.997442541114106,0
smt_24517,16.78288185107889,327.6,5.122979808021639,2.9971606987351467,0
smt_24520,16.782214129696346,327.6,5.122775985865795,2.997005097150526,0
smt_19116,16.781898840156146,327.6,5.1226797436374065,2.996931664079924,0
rbt_605806,4.389447536522961,90.3,4.860960727046469,2.2843914966255725,0
rbt_622714,4.323018450232476,90.3,4.787395847433529,2.251171897516848,0
sbt_25907,10.231724298821142,216.3,4.730339481655636,1.7798167666548232,0
sbt_21361,10.23171758459047,216.3,4.7303363775268,1.7798168675891997,0
sbt_20771,10.231712223029865,216.3,4.73033389876554,1.779819018070712,0
rbt_1607258,3.6139012381838276,76.65,4.714809182235912,2.2172341836383067,0
smt_6066,7.703032814286316,163.8,4.702706235828032,2.6991947562801317,0
smt_6062,7.702625917287076,163.8,4.702457824961584,2.6991204339875288,0
smt_6719,7.702176518740354,163.8,4.702183466874453,2.6990392385017103,0
smt_6176,7.701669767081255,163.8,4.7018740946772,2.6989440090147565,0
smt_6144,7.701196366437797,163.8,4.701585083295358,2.6988581145603505,0
smt_6227,7.700694384837153,163.8,4.701278623221705,2.6987654873635183,0
smt_19063,7.7002092665415125,163.8,4.700982458206051,2.6986770002581544,0
smt_6092,7.699728335737334,163.8,4.700688849656491,2.69858703960711,0
smt_29474,7.699311600891692,163.8,4.700434432778811,2.6985142570300513,0
smt_29473,7.698845002200161,163.8,4.700149573992772,2.6984306843388874,0
smt_19115,7.698378114871165,163.8,4.699864538993385,2.6983428296282406,0
smt_24512,7.698009931972947,163.8,4.699639763109246,2.6982608683305185,0
rbt_627328,4.219885343743746,90.3,4.6731842123408045,2.199469218409918,0
smt_37840,7.598871007475458,163.8,4.639115389179156,2.6728220538797736,0
smt_6474,7.598538756149754,163.8,4.638912549541974,2.6727611842648744,0
smt_19061,7.598127112847334,163.8,4.638661241054538,2.672681873621064,0
smt_29476,7.597724882533581,163.8,4.63841567920243,2.6726086687110246,0
smt_6594,7.597233647435102,163.8,4.6381157798749095,2.6725155561783875,0
smt_29475,7.596738242271314,163.8,4.637813334719971,2.672419166220154,0
smt_19011,7.596311137399257,163.8,4.637552586934833,2.6723415038366536,0
smt_19014,7.595821457552899,163.8,4.637253637089681,2.6722497556611144,0
sbt_5830,7.581756185216871,163.8,4.628666779741679,2.177868449184674,0
rbt_621168,3.5114025184742603,76.65,4.581086129777248,2.1532645056288024,0
rbt_605815,4.120557937357531,90.3,4.563187084559836,2.145940296298265,0
rbt_1107330,4.120074920619353,90.3,4.562652182302716,2.147326684132155,0
rbt_621171,2.8191127858992933,61.95,4.550625965939133,2.137939304099706,0
rbt_3422597,4.102072384057362,90.3,4.542715818446691,2.1365101146937135,0
rbt_606127,2.7982662551213444,61.95,4.516975391640588,2.1221659755136595,0
rbt_635966,2.7827467537074573,61.95,4.4919237347981555,2.1106285112884287,0
rbt_1124041,4.047499298038715,90.3,4.482280507241102,2.108092895941592,0
rbt_605921,3.335193930982434,76.65,4.35119886625236,2.0453656348105675,0
sbt_14007,7.089038181862718,163.8,4.327862137889326,2.0359423644890287,0
rbt_627336,3.8712720253745267,90.3,4.287122951688291,2.0144004563954843,0
rbt_1627321,3.8566743433923913,90.3,4.270957190910733,2.0076107507849508,0
rbt_1607355,3.840605666446053,90.3,4.2531624213134585,1.9991246381374357,0
rbt_605902,2.6343278148513183,61.95,4.252345141002935,1.998259806253709,0
sbt_35173,5.350648968901056,128.1,4.176931279391925,1.963742218515064,0
rbt_1607358,3.1979504277320956,76.65,4.172146676754202,1.96124984513475,0
sbt_21952,9.014136103978695,216.3,4.167423071649882,1.9610791337798241,0
sbt_20840,6.7869129657784315,163.8,4.143414509022241,1.9498752091076323,0
sbt_6273,6.780385696428273,163.8,4.139429607099068,1.947055317370648,0
rbt_3405838,3.6839984967470123,90.3,4.079732554537112,1.9198144108173223,0
rbt_622273,2.344702769119259,57.75,4.060091375098283,1.9111581288505395,0
rbt_1107341,2.5118232012837756,61.95,4.054597580764771,1.9074417107030242,0
smt_6536,11.579616680390332,286.65,4.039636030137915,2.3886725803803297,0
smt_6703,11.579034411416016,286.65,4.039432901244032,2.388539635890888,0
smt_6514,11.57846338052099,286.65,4.039233692838302,2.3884094254229287,0
smt_6984,11.578376212168806,286.65,4.039203283505601,2.3883895633335226,0
smt_5854,11.577489263521212,286.65,4.0388938648251225,2.3881876852915496,0
smt_5855,11.57682466773943,286.65,4.038662015607686,2.388036681019249,0
rbt_638617,2.5018692301439063,61.95,4.038529830740769,1.899795732847404,0
smt_5657,11.576279903804037,286.65,4.038471970627608,2.38791307304612,0
smt_21743,11.575705536731903,286.65,4.0382715983715,2.387782913206467,0
smt_22741,11.575116967212395,286.65,4.038066271485224,2.3876497109178456,0
smt_6098,11.5746493300704,286.65,4.037903132764836,2.3875440047192797,0
smt_19120,11.574106993826206,286.65,4.03771393470302,2.3874215545032076,0
smt_22740,11.573570169269306,286.65,4.03752665943461,2.3873004983066552,0
smt_22738,11.55912964697945,286.65,4.03248897504952,2.3817631285319885,0
smt_6754,11.55864059929532,286.65,4.032318367101106,2.381651620548524,0
smt_6567,11.558143421981487,286.65,4.032144923070465,2.3815383842001823,0
smt_6746,11.557649152731093,286.65,4.0319724935395405,2.381425935578762,0
smt_6812,11.557163376753802,286.65,4.031803026950568,2.381315541173313,0
rbt_605828,3.6396040690085045,90.3,4.030569290153383,1.8968247098533129,0
rbt_1607292,3.5699745476314604,90.3,3.9534601856383835,1.8588646079897257,0
sbt_4118,11.216338359631138,286.65,3.9129036663635577,1.4247577708186165,0
rbt_1626490,3.5313211822954473,90.3,3.910654686927406,2.9619049247647595,0
rbt_1635060,2.422617966957303,61.95,3.910602045128818,1.8389074042883304,0
sbt_37156,6.382955656891753,163.8,3.8967983253307406,1.8309363005864252,0
rbt_605867,3.5113188368397696,90.3,3.888503695282137,1.828506917853347,0
sbt_4615,6.297183393501625,163.8,3.844434306167048,1.809909444365038,0
sbt_3373,6.29718219363177,163.8,3.844433573645769,1.809908649235357,0
sbt_20793,6.297181091991696,163.8,3.8444329010938314,1.8099079253715893,0
sbt_4010,6.297179383707172,163.8,3.8444318581850863,1.8099068139928436,0
sbt_28804,6.297177831922424,163.8,3.8444309108195505,1.8099058155117012,0
rbt_605812,3.4290587115428015,90.3,3.7974072110108543,1.7871994655510548,0
rbt_632613,3.4258957278345705,90.3,3.7939044605034007,1.7845030732634033,0
rbt_622713,3.408501852893011,90.3,3.774642140523822,1.7737408132398995,0
rbt_606120,2.3273917866461162,61.95,3.7568874683553126,1.7646897668755281,0
sbt_26269,8.060102206138307,216.3,3.72635330843195,1.7522722795069718,0
rbt_1132019,3.31891592274019,90.3,3.6754329155483836,1.7281720881632578,0
rbt_605863,3.302822274888646,90.3,3.6576104926784563,1.7202734301312563,0
rbt_634166,2.775539400781777,76.65,3.621055969708776,1.7016094341336576,0
rbt_1138614,2.2283927413588294,61.95,3.597082714057836,1.6913327639925246,0
smt_7052,5.8575943200884755,163.8,3.5760649084789224,1.9364210025311692,0
rbt_605803,3.207608950562044,90.3,3.55216938046738,1.6698443855310963,0
rbt_605834,3.1847503575647806,90.3,3.526855323992005,1.6604060624079529,0
smt_29484,5.761309552795167,163.8,3.5172829992644483,1.7426070071307527,0
smt_22951,5.761296084190906,163.8,3.517274776673325,1.7425987289171758,0
rbt_605904,2.1787020334927814,61.95,3.516871724766394,1.651331670964523,0
smt_19381,5.759961820809789,163.8,3.516460208064584,1.7417797362671525,0
smt_18804,5.759267189004264,163.8,3.516036134923238,1.7413542748897244,0
smt_19380,5.758471155414828,163.8,3.5155501559309084,1.7408674794339352,0
smt_5349,5.757833367976486,163.8,3.5151607863104313,1.740478054814947,0
smt_18803,5.757185571437232,163.8,3.5147653061277366,1.7400830664825777,0
smt_13454,5.756524110183343,163.8,3.5143614836284143,1.7396803178608111,0
smt_19377,5.755737823138967,163.8,3.513881454907794,1.7392023199756979,0
smt_37837,7.599429690150699,216.3,3.5133747989601014,2.024161160201076,0
smt_29411,5.754749303924133,163.8,3.5132779633236466,1.7386025493655557,0
smt_37841,7.5990822214538944,216.3,3.513214156936613,2.0241061884107556,0
smt_8954,5.754141951078317,163.8,3.5129071740404867,1.738234694266102,0
smt_5584,5.7534339577398255,163.8,3.512474943675107,1.7378065094939108,0
rbt_605810,2.687396106514344,76.65,3.5060614566397184,1.6478701453976798,0
rbt_605864,3.157887163460519,90.3,3.49710649331176,1.6448018517392127,0
rbt_609682,2.6621631076097283,76.65,3.4731416929024506,1.6339362647657518,0
rbt_622703,2.136176013460611,61.95,3.448226010428751,2.612108390465414,0
rbt_605835,3.112433877648782,90.3,3.4467706286254507,1.6226864436822719,0
sbt_14006,5.634778319118531,163.8,3.440035603857467,1.6177102648365633,0
sbt_27416,7.336667555306139,216.3,3.3918943852548034,1.5951391867422917,0
sbt_15213,7.336667504597548,216.3,3.391894361811164,1.5951391757919042,0
rbt_606128,2.5858287145707908,76.65,3.3735534436670456,1.5854237568060687,0
sbt_37537,7.2775121608829805,216.3,3.3645456129833473,1.3106752242432689,0
sbt_37545,7.277503516440011,216.3,3.36454161647712,1.3106758138473227,0
sbt_37546,7.277486798651833,216.3,3.3645338874950683,1.3106747276767694,0
sbt_37539,7.269705216727712,216.3,3.3609362999203474,1.828850236200842,0
sbt_37538,7.269699688401005,216.3,3.3609337440596416,1.828850759852369,0
rbt_1607257,3.018855878608537,90.3,3.343140507872134,1.5714977739829967,0
rbt_607385,3.0129183499902608,90.3,3.3365651716392697,1.5693384488629405,0
rbt_3405845,3.0032075880804454,90.3,3.3258112824811135,1.5655737312559495,0
rbt_633056,2.999237051183093,90.3,3.3214142316534807,1.561612645109401,0
rbt_606141,2.9959600893374994,90.3,3.3177852595099666,1.561854005903549,0
rbt_623015,2.9879880624324815,90.3,3.30895687977019,2.5063169463572748,0
sbt_34389,4.219884091496911,128.1,3.294210844259884,2.534877707044704,0
smt_25186,5.382862386423832,163.8,3.2862407731525227,1.795163883502351,0
smt_37855,7.048558310730739,216.3,3.258695474216707,1.750272176804556,0
smt_37854,7.0481976466473615,216.3,3.258528731690874,1.7502579430745866,0
smt_37853,7.047865761192477,216.3,3.2583752941250466,1.7502489836987152,0
smt_37852,7.047525109964671,216.3,3.258217803959626,1.7502368487039102,0
smt_37851,7.0472042632926355,216.3,3.2580694698532753,1.750229172528428,0
smt_37850,7.046870543688597,216.3,3.2579151843220515,1.7502197916228202,0
smt_37849,7.046538193880551,216.3,3.2577615320760747,1.7502121997645903,0
smt_37848,7.0461939803764535,216.3,3.2576023949960486,1.75020307211362,0
smt_37847,7.045851069532045,216.3,3.2574438601627578,1.750182740528546,0
smt_37846,7.045610059884269,216.3,3.257332436377378,1.7501868602667423,0
smt_37845,7.045281099145456,216.3,3.257180350968773,1.750181472118592,0
smt_38000,7.044930466675595,216.3,3.2570182462670343,1.7501671167077404,0
smt_38002,7.044633527635603,216.3,3.2568809651574675,1.7501266345361761,0
smt_38001,7.04462582521706,216.3,3.2568774041687747,1.7501270753855478,0
smt_37843,7.044614137264254,216.3,3.256872000584491,1.750163088627579,0
smt_37842,7.044290757411967,216.3,3.2567224953360916,1.7501377741693505,0
smt_37838,7.044123634422049,216.3,3.2566452308932266,1.7501460935216964,0
rbt_605982,2.9272571815934927,90.3,3.2417023051976663,1.5251860505375159,0
rbt_1606000,2.925965208477772,90.3,3.2402715487018523,1.5234164866301512,0
rbt_1629639,2.913126678070939,90.3,3.226053907055303,1.5157110379011416,0
sbt_3952,5.267200995746618,163.8,3.2156294235327336,1.5133112997448563,0
sbt_4120,5.267199579535305,163.8,3.2156285589348625,1.5133103819301186,0
sbt_20855,5.2671981987966685,163.8,3.2156277159930817,1.513309494090698,0
sbt_20854,5.267196887311292,163.8,3.2156269153304593,1.5133086569138106,0
rbt_635963,1.9909132420763245,61.95,3.2137421179601686,1.509536457442385,0
rbt_626481,2.8634684961727834,90.3,3.171061457555685,1.4905626478416074,0
rbt_1607306,2.4146909229205185,76.65,3.150281699831074,1.4812619305943668,0
rbt_605901,2.8355551263850107,90.3,3.140149641622382,1.4755130301862964,0
rbt_605820,2.4029983513865436,76.65,3.135027203374486,1.474533878365252,0
rbt_3405847,2.8294623922237983,90.3,3.1334024277118475,1.474883288353636,0
sbt_34000,6.735971785567387,216.3,3.114180205995093,1.4637889119721539,0
rbt_1607289,2.386927267556768,76.65,3.114060362109286,1.4633988039270143,0
sbt_20828,5.05419826604598,163.8,3.0855911270121976,1.4503100826456385,0
rbt_1609690,2.744643360099237,90.3,3.039472159578336,1.4281636772727981,0
smt_15243,4.955021506966626,163.8,3.02504365504678,1.7734891168955151,0
smt_26472,4.954586098769354,163.8,3.024777838076529,1.7734254785209982,0
smt_14780,4.954092714101472,163.8,3.0244766264355754,1.7733499548237133,0
smt_14754,4.953600504841359,163.8,3.0241761323817817,1.7732753411062203,0
smt_14729,4.953110868898023,163.8,3.0238772093394526,1.7780134480269556,0
smt_21229,4.952613935584722,163.8,3.023573831248304,1.7779390687285452,0
smt_26474,4.952145770832511,163.8,3.0232880163812643,1.7778678635221323,0
smt_22453,4.951732937929774,163.8,3.023035981642108,1.777814398268693,0
smt_14544,4.951237161837725,163.8,3.022733310035241,1.77774436022913,0
smt_14113,4.950742130056163,163.8,3.0224310928303804,1.7776786254959607,0
smt_22508,4.950199169195723,163.8,3.0220996148936035,1.7775994500773251,0
smt_14452,4.9497206099505595,163.8,3.0218074541822704,1.7775289813881507,0
smt_6512,8.66153334708204,286.65,3.0216407978657043,1.803687912868529,0
smt_30311,4.949319111493053,163.8,3.021562339128848,1.7774816729202874,0
smt_6425,8.661146506813601,286.65,3.0215058457399624,1.803611472744267,0
smt_6930,8.660553926348701,286.65,3.021299119605338,1.8034934989887013,0
smt_26478,4.948824089028215,163.8,3.0212601276118525,1.7774096573093967,0
sbt_34382,3.864348588496414,128.1,3.016665564790331,1.417642987982024,0
rbt_1625170,2.722317690602239,90.3,3.0147482730921804,1.4166501711703523,0
smt_37856,6.505083679208896,216.3,3.007435820253766,1.6449334601039753,0
rbt_605821,3.849197664758557,128.1,3.004838145791223,1.411823625299169,0
sbt_35105,3.840605303608801,128.1,2.998130603910071,1.4092187147670459,0
rbt_605988,2.6870968161969615,90.3,2.9757439824994036,1.4004802230967746,0
smt_22686,8.473568307156109,286.65,2.9560677855071025,1.8504388688101658,0
smt_6239,8.473113511645668,286.65,2.955909126686087,1.8503454905612857,0
smt_23961,8.472669599801838,286.65,2.9557542647137063,1.8502545344210057,0
smt_29407,8.472218048866424,286.65,2.955596737786996,1.850162052989524,0
smt_6278,8.471813632555492,286.65,2.9554556541271557,1.8500795939640422,0
smt_6630,8.471342123650993,286.65,2.9552911647134117,1.849983452147443,0
smt_19070,8.470868385253095,286.65,2.9551258975241916,1.849887022469783,0
smt_6639,8.470394943590184,286.65,2.9549607338531954,1.8497907417807002,0
smt_19117,8.46995302636919,286.65,2.954806567719934,1.8497010223676111,0
smt_21514,8.465414219808524,286.65,2.953223171047802,1.8442748220754253,0
smt_5615,8.464956412379054,286.65,2.953063461496269,1.844178968808069,0
smt_18742,8.464599889083532,286.65,2.952939085673655,1.8441045844709147,0
smt_6270,8.464039969337714,286.65,2.952743753475567,1.8439876998561529,0
smt_5967,8.463604488323698,286.65,2.9525918326613287,1.8438970792947824,0
smt_5772,8.463090790099,286.65,2.9524126251871627,1.843790293564745,0
smt_6158,8.462582748693492,286.65,2.9522353911367496,1.8436848124477454,0
smt_6263,8.462142777717533,286.65,2.952081903965649,1.8435938018594786,0
smt_6384,8.461597160283269,286.65,2.951891561236096,1.8434809866668482,0
smt_22684,8.461063310069013,286.65,2.9517053235893997,1.8433706983651417,0
smt_22685,8.460627743293397,286.65,2.951553372856584,1.8432810110392281,0
smt_29447,8.460171095102256,286.65,2.9513940677140265,1.8431871601918954,0
smt_19065,8.4596819088778,286.65,2.951223411434781,1.8430868657495854,0
smt_24385,8.459129179295436,286.65,2.9510305875790817,1.8429736324428685,0
smt_29448,8.457442242800987,286.65,2.9504420871449457,1.8305968158716521,0
smt_6824,8.456995921364866,286.65,2.9502863845682423,1.8305009420749319,0
smt_6855,8.456517357245188,286.65,2.9501194338898267,1.8303983064482205,0
smt_19062,8.455958497623474,286.65,2.949924471523975,1.8302786657267525,0
smt_7054,8.455514299129318,286.65,2.94976950955148,1.8301837376503534,0
smt_6446,8.455060456410123,286.65,2.9496111831188294,1.8300869006614773,0
smt_39006,8.454595476023565,286.65,2.949448971227478,1.8299878469417117,0
smt_39008,8.454175320090966,286.65,2.9493023966827026,1.8298984815562573,0
smt_39007,8.454157613010173,286.65,2.9492962194349115,1.8298947177947211,0
smt_6122,8.453754403855838,286.65,2.9491555569006938,1.8298090867200303,0
smt_18741,8.45324558907059,286.65,2.948978053050965,1.8297012115962692,0
smt_5938,8.4527741949197,286.65,2.948813603669876,1.8296014937760754,0
smt_5946,8.452229867517149,286.65,2.9486237109775506,1.8294865428180522,0
smt_856,4.829730716102908,163.8,2.9485535507343763,1.7365394012278204,0
smt_15622,4.829186831835743,163.8,2.9482215090572303,1.7364442202345913,0
smt_23196,4.828884601651275,163.8,2.948036997345101,1.7364025093289621,0
smt_15581,4.8285606285906235,163.8,2.947839211593787,1.7363584429775105,0
smt_15568,4.828209979683462,163.8,2.947625140221893,1.73630838475797,0
rbt_605804,1.8217374484876434,61.95,2.9406577053876406,1.3819938126464404,0
sbt_6048,4.762408806918229,163.8,2.9074534840770627,1.3682459194544931,0
rbt_605829,2.6191285428941975,90.3,2.9004745768485023,1.3635747757585273,0
sbt_15045,6.2587019073203445,216.3,2.8935283898845787,1.361058443184407,0
smt_23147,4.720448696616645,163.8,2.881836811121272,1.708696023911618,0
smt_16038,4.720138503356961,163.8,2.8816474379468624,1.708695384446819,0
smt_37925,6.219443652522434,216.3,2.8753784801305753,1.5802658569536765,0
smt_37924,6.219281925934682,216.3,2.8753037105569494,1.5802879757308386,0
smt_37923,6.218935871062355,216.3,2.8751437221739966,1.5802848988846465,0
smt_37864,6.218594803099956,216.3,2.874986039343484,1.5802597252764397,0
smt_37863,6.21843324034986,216.3,2.874911345515423,1.580258744237393,0
smt_37862,6.218271862581082,216.3,2.8748367372080823,1.5802714247261183,0
smt_37861,6.218005337732213,216.3,2.874713517213228,1.580277435015886,0
smt_37860,6.217682730855134,216.3,2.874564369327385,1.5802784655454547,0
smt_37859,6.217342603805008,216.3,2.874407121500235,1.5802660633689254,0
smt_37858,6.217089218521892,216.3,2.874289976200597,1.5802782092829428,0
smt_37831,6.2167389143513665,216.3,2.8741280232784865,1.5802533940512138,0
rbt_1607316,2.590113117827092,90.3,2.868342323175075,2.1735180551630737,0
rbt_1107342,1.7766846995638268,61.95,2.86793333262926,1.3484795408149512,0
smt_37898,6.200901330821188,216.3,2.866805978188251,1.572294352041178,0
smt_37897,6.200514313142075,216.3,2.8666270518456196,1.57227224639467,0
smt_37896,6.200178093164274,216.3,2.86647161033947,1.5722600433694625,0
smt_37895,6.199817504707096,216.3,2.8663049027772054,1.572244103254772,0
smt_37894,6.199462734564385,216.3,2.866140885143035,1.5722273548997237,0
smt_37893,6.1991272328548215,216.3,2.8659857757072684,1.5722150797491115,0
smt_37892,6.1987770724433675,216.3,2.8658238892479737,1.5721997550920281,0
smt_37891,6.198439381672266,216.3,2.8656677677634144,1.572188640946802,0
smt_37890,6.1980803444549135,216.3,2.865501777371666,1.572187775737923,0
smt_37889,6.197595295917247,216.3,2.8652775293191155,1.5721447003028501,0
smt_37888,6.197351579324519,216.3,2.8651648540566432,1.5721346419091902,0
smt_37887,6.197118279029916,216.3,2.8650569944659807,1.5721395013503703,0
smt_37886,6.196757294205195,216.3,2.8648901036547363,1.5721253553009784,0
smt_37885,6.196409532504382,216.3,2.864729326169386,1.5721137238848504,0
smt_37884,6.196058272109489,216.3,2.864566931164812,1.5721020190362627,0
smt_37883,6.195705887134064,216.3,2.8644040162432103,1.5720915838602878,0
smt_37882,6.195342971875956,216.3,2.8642362329523605,1.5720786962602205,0
smt_37881,6.194992124630754,216.3,2.864074028955503,1.5720683507660063,0
smt_37880,6.194636101647704,216.3,2.8639094321071212,1.5720552607638993,0
smt_37879,6.194301461827766,216.3,2.8637547211408996,1.5720491760561952,0
smt_37878,6.193932544781465,216.3,2.8635841630982264,1.5720362411038469,0
smt_37877,6.1935855763345105,216.3,2.863423752350675,1.5720280503697273,0
smt_37876,6.1932259395579585,216.3,2.8632574847702075,1.57201860064273,0
smt_37875,6.192864711343235,216.3,2.86309048143469,1.572009412321768,0
smt_37874,6.1925021025217255,216.3,2.8629228398158695,1.5719991824111206,0
smt_37873,6.1921499653529875,216.3,2.8627600394604658,1.5719878237669545,0
smt_37945,6.191823114318019,216.3,2.862608929411937,1.5719694737204186,0
smt_37944,6.191590138887587,216.3,2.862501220012754,1.5719687311912383,0
smt_37943,6.1913173816079,216.3,2.8623751186351822,1.5719682486512285,0
smt_37942,6.190996632556113,216.3,2.8622268296607087,1.5719611161565021,0
smt_37941,6.19067862914383,216.3,2.8620798100526255,1.5719542638481474,0
smt_37940,6.190363611652643,216.3,2.8619341708981243,1.5719488435342182,0
smt_37939,6.190041995195745,216.3,2.8617854809041816,1.571943576256622,0
smt_37938,6.189713632138847,216.3,2.8616336718163877,1.5719381075679273,0
smt_37937,6.189381481491144,216.3,2.861480111646391,1.5719317142321,0
smt_37936,6.189055067947229,216.3,2.861329203859098,1.5719263855105605,0
smt_37935,6.188728543526268,216.3,2.8611782448110343,1.5719175431888297,0
smt_37934,6.188433223664526,216.3,2.861041712281334,1.5719164898559732,0
smt_37933,6.188110529901218,216.3,2.8608925242261756,1.5719121980313722,0
smt_37932,6.187786052420907,216.3,2.8607425115214546,1.5719079406840677,0
smt_13546,4.666693805941465,163.8,2.849019417546682,1.691063767646958,0
smt_21225,4.666403169060012,163.8,2.848841983553121,1.691030415763774,0
smt_13930,4.665880401757482,163.8,2.8485228337957764,1.6909451111557565,0
smt_21226,4.6653615583986054,163.8,2.848206079608428,1.6908538510637348,0
smt_13280,4.664964704754845,163.8,2.847963800216633,1.6907894919889686,0
smt_14437,4.664586984886465,163.8,2.8477332020063884,1.6907302169782332,0
smt_13955,4.664206223032182,163.8,2.847500746661894,1.6906711821225875,0
smt_26469,4.663820557091537,163.8,2.8472652973696806,1.6906083168762382,0
smt_20808,4.663483571155294,163.8,2.8470595672498744,1.6905578648515596,0
smt_23095,4.663130767476785,163.8,2.8468441803887576,1.6904921549333187,0
smt_20807,4.66295287861917,163.8,2.8467355791325826,1.6904792203180303,0
smt_13717,4.662577893687768,163.8,2.8465066506030325,1.69041779587318,0
smt_37986,6.121394822204454,216.3,2.8300484614907324,1.5932877773079477,0
smt_37987,6.121144976304503,216.3,2.8299329525217307,1.5932703825495131,0
smt_37993,6.1208257996326445,216.3,2.8297853904912826,1.5932329919069463,0
smt_37920,6.120666233126671,216.3,2.8297116195685024,1.5932335256371435,0
smt_37919,6.120278945564225,216.3,2.8295325684531782,1.593200207973645,0
smt_37918,6.119898812129963,216.3,2.8293568248404823,1.593167206280259,0
smt_37917,6.1195352083304435,216.3,2.829188723222581,1.5931376350429964,0
smt_37916,6.119160614366877,216.3,2.8290155406226893,1.5931064154147763,0
smt_37915,6.118791152299792,216.3,2.828844730605544,1.5930700490959167,0
smt_37914,6.118516717181259,216.3,2.82871785352809,1.593053358848816,0
smt_37913,6.118157452037285,216.3,2.8285517577611117,1.5930257575630857,0
smt_37912,6.117779430305232,216.3,2.8283769904323774,1.592994925426867,0
smt_40685,6.117413354976837,216.3,2.8282077461751443,1.5929647381434104,0
smt_37911,6.117066635124925,216.3,2.828047450358264,1.5929157805474334,0
smt_37910,6.117046313081364,216.3,2.8280380550537974,1.5929379634093959,0
smt_37909,6.116674248491826,216.3,2.827866041836258,1.5929087983557475,0
smt_37908,6.116309556761512,216.3,2.827697437245267,1.5928821417830301,0
smt_40683,6.115928256937975,216.3,2.8275211543864884,1.5928515281422941,0
smt_37906,6.115573874544449,216.3,2.827357316016851,1.5928259826084465,0
smt_37905,6.115206709187548,216.3,2.827187567816712,1.5927970995905227,0
smt_37904,6.114864929587675,216.3,2.827029555981357,1.5927722064550096,0
smt_37903,6.114522164449411,216.3,2.8268710885110546,1.5927414882712687,0
smt_14797,4.62908314690719,163.8,2.8260580872449266,1.6734879430596104,0
smt_23041,4.628701127563769,163.8,2.825824864202545,1.6734251361414014,0
smt_14823,4.628314073254249,163.8,2.8255885673102865,1.673362070702846,0
smt_13752,4.627921501655337,163.8,2.8253489021094853,1.6732739602633797,0
sbt_22669,6.104655134807899,216.3,2.8223093549736014,1.3268830813548251,0
rbt_3405987,1.7479328223081747,61.95,2.821521908487772,1.3282931941039229,0
smt_23225,4.61627457199423,163.8,2.818238444440922,1.6667491890402477,0
smt_21220,4.6158407341608125,163.8,2.8179735861787623,1.6666738228236586,0
smt_14845,4.61538760983875,163.8,2.81769695350351,1.6665957027244904,0
smt_26425,4.614918616461471,163.8,2.8174106327603603,1.6665146042727155,0
smt_20810,4.614452706688008,163.8,2.817126194559223,1.6664307063579333,0
smt_26429,4.6140604493577975,163.8,2.816886721219656,1.6663641909265605,0
smt_26430,4.613671490021524,163.8,2.8166492613074015,1.6662988790247448,0
rbt_1132012,2.537529732256565,90.3,2.810110445466849,1.320735115513764,0
smt_21222,4.601518979537798,163.8,2.809230146237972,1.6604830145719778,0
smt_14301,4.601200731084767,163.8,2.809035855363106,1.6604274231778484,0
smt_23277,4.600798732274851,163.8,2.808790434844231,1.6603512852476243,0
smt_26427,4.600420691415332,163.8,2.8085596406687006,1.6602824500258169,0
smt_20812,4.600022355451962,163.8,2.8083164563198793,1.6602094723529943,0
smt_15154,4.599623232203027,163.8,2.808072791332739,1.660135712951102,0
smt_14674,4.599246915634283,163.8,2.8078430498377793,1.6600719288433818,0
rbt_1607268,2.151502576407185,76.65,2.8069179079023936,1.3190858195851238,0
smt_37963,6.068978924829284,216.3,2.805815499227593,1.5703606238698207,0
smt_37983,6.068503737874206,216.3,2.805595810390294,1.5703160734912023,0
smt_37984,6.068020840230975,216.3,2.8053725567410885,1.5702703814486751,0
smt_37985,6.067545851322257,216.3,2.805152959464751,1.5702258987626132,0
smt_37947,6.067078661921229,216.3,2.8049369680634437,1.5701806952941075,0
smt_37948,6.066651370589654,216.3,2.804739422371546,1.5701425778900466,0
sbt_35588,6.055833513086255,216.3,2.7997381012881437,1.3157670222767146,0
rbt_605823,2.5259582400195715,90.3,2.797295946865528,1.3154638698479417,0
sbt_21281,4.534394575902395,163.8,2.7682506568390686,1.3006618867078068,0
rbt_605989,2.4680802640039317,90.3,2.733200735331043,1.2845802632499168,0
rbt_1121173,2.4636950335840733,90.3,2.7283444447221186,1.2833259235672472,0
rbt_605807,2.4573055838791777,90.3,2.721268642169632,1.280296687436395,0
smt_29426,5.858316352907604,216.3,2.708421799772355,1.4667415543461768,0
rbt_606130,2.0699549278535923,76.65,2.700528281609383,1.2689390163986862,0
sbt_3491,4.416398676535196,163.8,2.696214088238825,1.2673953232350668,0
rbt_637399,1.6604793971327005,61.95,2.680354151949476,1.259544009701701,0
sbt_21191,4.381019889192151,163.8,2.674615316967125,1.2575196127272823,0
sbt_26310,4.3230180427281395,163.8,2.6392051542906834,1.2410304066851348,0
rbt_637705,2.3693836313631675,90.3,2.623902138829643,1.9876289210650278,0
rbt_1105833,2.36208183634833,90.3,2.615815987096711,1.2296133394903468,0
rbt_1607276,2.35262997190893,90.3,2.6053488061006975,1.2242163598921996,0
smt_37960,5.621400039712251,216.3,2.5988904483181927,1.4917503906804042,0
smt_37962,5.6209906597240495,216.3,2.5987011834138,1.4917124803710913,0
smt_37981,5.60273427225449,216.3,2.5902608748287053,1.4676267316291094,0
smt_37951,5.602351154027886,216.3,2.5900837512842747,1.4675878679136571,0
smt_37952,5.601967422499334,216.3,2.5899063441975656,1.4675538530228633,0
smt_37953,5.601495115245261,216.3,2.5896879867060845,1.4675059280772615,0
smt_37954,5.601040186577896,216.3,2.589477663697594,1.4695455040411296,0
smt_37955,5.600546582104654,216.3,2.58924946005763,1.469495120288472,0
smt_37956,5.60014975558404,216.3,2.589065998883051,1.4694641905993346,0
smt_37957,5.599680461375765,216.3,2.588849034385467,1.4694226848639385,0
smt_37958,5.599213906275472,216.3,2.5886333362346146,1.4693826616051897,0
smt_37959,5.5987385224020265,216.3,2.5884135563578483,1.469341263197715,0
rbt_1607319,2.3156856249087308,90.3,2.564435907983091,1.8216205426935128,0
rbt_622709,2.3129275481297955,90.3,2.561381559390693,1.2042233080048328,0
rbt_1607328,2.3106576733449353,90.3,2.5588678553100057,1.203240071791515,0
rbt_607366,2.309543239659097,90.3,2.557633709478513,1.2019317276275998,0
smt_37979,5.482186900095868,216.3,2.5345293111862537,1.4558106480527815,0
smt_37980,5.48177996492094,216.3,2.5343411765700137,1.4557514766432258,0
sbt_21953,4.120075215752269,163.8,2.5153084345251946,1.1837826890348941,0
sbt_21849,4.120075149383906,163.8,2.5153083940072687,1.1837826697460145,0
sbt_21968,4.120075068972528,163.8,2.515308344916073,1.1837826464238486,0
smt_6074,7.176799863856229,286.65,2.5036803990428154,1.4815547372449,0
smt_6082,7.176330517372988,286.65,2.5035166640059265,1.481473935495307,0
smt_6649,7.175867968099695,286.65,2.503355300226651,1.4813944706489846,0
smt_29408,7.175415723174528,286.65,2.5031975311964167,1.481317191780377,0
smt_6422,7.174962519705907,286.65,2.503039427771117,1.4812399971918202,0
smt_22683,7.174506990866685,286.65,2.5028805131228626,1.4811625627530505,0
smt_22793,7.1558353535109145,286.65,2.4963667725487233,1.467814421555051,0
smt_22790,7.155360821316802,286.65,2.496201228437747,1.467728795105252,0
smt_29449,7.15492349857129,286.65,2.4960486651216782,1.468396038749759,0
smt_6370,7.154902735953711,286.65,2.4960414219269884,1.4676465947995903,0
smt_6401,7.154466206341024,286.65,2.495889135301247,1.4683159658847431,0
smt_29409,7.154442270100729,286.65,2.4958807849644966,1.467564454439563,0
smt_21348,7.1540063244368595,286.65,2.495728702053675,1.4682429718450478,0
smt_5650,7.153959859017492,286.65,2.4957124922440235,1.4674782507476973,0
smt_6094,7.153483607664141,286.65,2.4955463483914673,1.4673919310838983,0
smt_29477,7.153117906079539,286.65,2.4954187706539472,1.467328119506501,0
smt_29450,7.152670982235784,286.65,2.4952628579228273,1.467249584833178,0
smt_6231,7.152179625436928,286.65,2.4950914444224415,1.4671623446109514,0
smt_6340,7.151719165831583,286.65,2.494930809639485,1.4670814479765968,0
smt_25183,5.38223098220386,216.3,2.488317606196884,1.3591529878428776,0
smt_25117,5.381586275061046,216.3,2.4880195446421847,1.3588556321518395,0
smt_25116,5.3809235767413846,216.3,2.487713165391301,1.3585502873782795,0
smt_25115,5.3804051020139685,216.3,2.487473463714271,1.3583116140067444,0
smt_25114,5.379950079031394,216.3,2.4872630971018923,1.3581023087897819,0
smt_25113,5.379419086876374,216.3,2.4870176083570845,1.3578582469715013,0
smt_25112,5.37885821134817,216.3,2.486758303905765,1.3576006706384522,0
smt_25111,5.378490766174341,216.3,2.486588426340426,1.357432048474675,0
smt_25110,5.378225370816748,216.3,2.4864657285329392,1.3573103183029265,0
smt_25109,5.377525404784605,216.3,2.486142119641519,1.3569895068959006,0
smt_25108,5.376992506885909,216.3,2.485895749831673,1.356745506140925,0
smt_25107,5.376274648980451,216.3,2.485563869154161,1.356417144904175,0
smt_25106,5.37564791265193,216.3,2.485274115881613,1.3561307732891377,0
smt_25105,5.375006811215391,216.3,2.4849777213201065,1.3558381369761152,0
smt_29427,5.374365427089415,216.3,2.4846811960653787,1.3555456752700443,0
smt_6407,5.3730959794300865,216.3,2.4840943039436367,1.3549677254375212,0
smt_22794,5.372464186047166,216.3,2.483802212689397,1.3546805321465645,0
smt_6477,5.371766952241295,216.3,2.4834798669631506,1.3543639384938155,0
smt_6641,5.37086119449512,216.3,2.483061116271438,1.3539532056823986,0
smt_6157,5.3702252443419605,216.3,2.482767103255645,1.3536651919960692,0
smt_6694,5.369507032721152,216.3,2.4824350590481514,1.3533402914984594,0
smt_6581,7.087779034650068,286.65,2.472624815855597,1.4413801712712917,0
smt_6701,7.087315666453765,286.65,2.4724631663888945,1.441301508913253,0
smt_21959,7.086806815862417,286.65,2.4722856500479393,1.4412134510804906,0
rbt_1633892,2.2322950032308224,90.3,2.47208748973513,1.1619062310564976,0
sbt_21137,4.047496728732839,163.8,2.470999223890622,1.1621521658152536,0
smt_19219,7.07754674670817,286.65,2.4690552055496844,1.4306099191977164,0
smt_5952,7.077056731953377,286.65,2.468884260231424,1.4305181497653363,0
smt_29478,7.076545727211436,286.65,2.4687059923988968,1.4304219303885928,0
smt_22841,7.076095477107501,286.65,2.4685489192769934,1.430338231944128,0
smt_6660,7.075609116139499,286.65,2.4683792486096285,1.4302474910316672,0
rbt_1134165,2.2265841654231044,90.3,2.4657631953744237,1.1603038868098616,0
rbt_1131858,2.2252996602527952,90.3,2.4643407090285665,1.1592961719557413,0
smt_22845,7.036156189388199,286.65,2.4546157995423687,1.4072495327891883,0
smt_18913,7.035588215083838,286.65,2.4544176574511907,1.4071422164338359,0
smt_5786,7.035037735593985,286.65,2.4542256185571203,1.4070380127685322,0
smt_29479,7.0345638354208075,286.65,2.4540602949313826,1.4069492145966818,0
smt_19224,7.0340768097708395,286.65,2.453890392384734,1.406858310390822,0
rbt_1607353,2.2061197549914335,90.3,2.443100503866482,1.1482449452026064,0
sbt_34390,3.987362303784489,163.8,2.434287120747551,1.8440299078167843,0
smt_37973,5.100639443052061,216.3,2.3581319662746467,1.3813492865391377,0
smt_37991,5.100463103412214,216.3,2.3580504407823457,1.3813354923040568,0
smt_37974,5.100214558620822,216.3,2.3579355333429595,1.3813202740873118,0
smt_37990,5.099790853349957,216.3,2.3577396455617,1.3812767061274185,0
smt_37975,5.099399018276927,216.3,2.357558492037414,1.381240232238181,0
smt_37976,5.0989750211599745,216.3,2.357362469329623,1.3811989424216928,0
smt_37977,5.098556913942663,216.3,2.357169169645244,1.381157842430813,0
smt_37978,5.098159040524696,216.3,2.3569852244681906,1.3811227605687142,0
smt_37970,5.055602935535118,216.3,2.3373106498081913,1.3708514812329973,0
smt_37971,5.055046030299379,216.3,2.3370531809058614,1.3707818136447678,0
smt_37972,5.05475816147108,216.3,2.336920093144281,1.3707607650790419,0
smt_37989,5.054347293215056,216.3,2.336730140182642,1.3707558927168038,0
sbt_20633,3.817908026506685,163.8,2.330835181017512,1.5383104917208474,0
sbt_4619,4.991463739230772,216.3,2.3076577620114525,1.084710032312305,0
smt_37964,4.948416312298105,216.3,2.2877560389727716,1.345947897841721,0
smt_37965,4.94696259008296,216.3,2.2870839528816274,1.3458056433765198,0
smt_37994,4.946772816163714,216.3,2.286996216441846,1.3457768877479817,0
smt_37995,4.946768323602086,216.3,2.286994139436933,1.3457765901894236,0
smt_37996,4.94676291547278,216.3,2.2869916391459912,1.3457947239802424,0
smt_37966,4.946434145390422,216.3,2.286839641881841,1.345768100499547,0
smt_37967,4.946032226824998,216.3,2.2866538265487737,1.3457313766341505,0
smt_37968,4.945620121652687,216.3,2.2864633017349454,1.345693116652904,0
smt_37969,4.945215661789577,216.3,2.28627631150697,1.3456508311952868,0
rbt_606110,1.3873091652273164,61.95,2.2394013966542636,1.0521627719768814,0
rbt_1607284,2.0146182493250824,90.3,2.231027961600313,1.0488484832292504,0
rbt_1607302,1.3655223118968247,61.95,2.204232948985996,1.0356073781045303,0
rbt_607382,1.9695707945265817,90.3,2.1811415221778314,1.0254534838997544,0
rbt_1607273,1.6707568047799888,76.65,2.1797218588127705,1.0242326613773722,0
sbt_26614,3.531320905497635,162.75,2.1697824304132936,1.6433793342396097,0
sbt_26512,3.5313193179172493,162.75,2.1697814549414742,1.6433783466713834,0
sbt_16246,3.5313187391826104,162.75,2.1697810993441538,1.6433779872590366,0
sbt_5828,3.531315999152088,163.8,2.1558705733529226,1.6328418257814814,0
sbt_3790,3.506204966044966,163.8,2.1405402723107243,1.005617709824856,0
rbt_1137150,1.318143747157134,61.95,2.127754232699167,1.0002824900552343,0
rbt_3405843,1.9159298669980764,90.3,2.1217385016589994,0.9977289476283812,0
rbt_1607288,1.6104236464535715,76.65,2.101009323488025,0.9875080760991021,0
rbt_605817,1.602057404880383,76.65,2.0900944616834742,0.9824381644762896,0
smt_13591,3.4035837942964244,163.8,2.0778899843079515,1.030455616003627,0
sbt_30492,2.5858263508601755,124.95,2.0694888762386356,0.972568952693622,0
rbt_607387,1.8592338792683478,90.3,2.0589522472517694,0.9675990406495517,0
sbt_21147,2.6342923309546964,128.1,2.0564342942659612,0.966343550378891,0
sbt_17923,2.6342868502156542,128.1,2.0564300157811513,0.9663392320988712,0
rbt_626695,1.8511874036010587,90.3,2.050041421485115,1.5529578330191276,0
rbt_623432,1.8510882584351278,90.3,2.0499316261740064,0.9638724872995107,0
sbt_3473,3.335191607730653,163.8,2.036136512656076,0.9571247822488451,0
sbt_26790,4.392881435854335,216.3,2.0309206823182313,0.9549382218414003,0
smt_18691,5.798940519820342,286.65,2.023003844346884,1.0631908056290185,0
smt_18692,5.798239684692319,286.65,2.0227593527620167,1.0630106965437023,0
smt_22142,5.797615021214413,286.65,2.022541434227948,1.06285060248802,0
smt_29410,5.797048178340864,286.65,2.0223436868448856,1.0627056867902536,0
smt_4821,5.796507435821181,286.65,2.0221550447658054,1.0625677635731976,0
smt_18693,5.795848981149703,286.65,2.021925337920706,1.06240023923484,0
smt_5832,5.795242267882686,286.65,2.021713681452184,1.0622462912045776,0
smt_18694,5.794607029177499,286.65,2.021492073670853,1.0620855301463905,0
smt_5643,5.794047233670996,286.65,2.0212967848145813,1.0619442231510312,0
smt_29483,5.793490920559247,286.65,2.0211027108178086,1.061804131641641,0
smt_6014,5.7929399859379105,286.65,2.0209105131477103,1.061665726033162,0
smt_18695,5.792304498274887,286.65,2.020688818515572,1.0615064898937756,0
smt_29482,5.791739542470576,286.65,2.0204917294507503,1.0613652977423151,0
smt_6195,5.791147472386816,286.65,2.020285181366411,1.061217704763557,0
smt_6105,5.790553345741726,286.65,2.0200779158352438,1.061069986464157,0
smt_19334,5.752152742453501,286.65,2.0066815776917846,1.0414718129596074,0
smt_19331,5.751532768328052,286.65,2.0064652950734527,1.0412819115388299,0
smt_22269,5.750923914612378,286.65,2.0062528918933817,1.041095737262646,0
sbt_34896,4.294852528224896,216.3,1.9855998743527028,0.9333667986241286,0
sbt_34381,3.207608616854741,163.8,1.9582470188368382,0.9205550300083881,0
smt_29480,5.532056758610981,286.65,1.9298994448320186,1.0632041458680002,0
smt_19271,5.5308874560588785,286.65,1.9294915248766369,1.0629527351073849,0
smt_5537,5.530423231833407,286.65,1.9293295767777454,1.062853373581384,0
rbt_605808,1.735961639420942,90.3,1.9224381388936236,0.9032590057211434,0
smt_19274,5.509886259633898,286.65,1.9221651001688118,1.0502791101915363,0
smt_4942,5.5093409300307306,286.65,1.921974857851293,1.05016059244251,0
smt_18740,5.508808829465236,286.65,1.9217892305826747,1.0500452919393,0
smt_5191,5.508279182930676,286.65,1.9216044594211323,1.0499308597182206,0
smt_5198,5.507754536574212,286.65,1.9214214326091792,1.049817839753459,0
smt_5549,5.5071763100459235,286.65,1.9212197139528777,1.0496936612345171,0
smt_19273,5.506584910885781,286.65,1.921013399925268,1.0495670712795364,0
smt_5414,5.506088452732991,286.65,1.9208402067793444,1.0494611304880603,0
smt_5522,5.50553644335204,286.65,1.920647634171303,1.0493436867587707,0
rbt_1607326,1.7327856066431142,90.3,1.918920937589274,0.9022139124010949,0
smt_40861,5.479592008727734,286.65,1.9115967237843134,1.0333268515441167,0
smt_40860,5.479235764050892,286.65,1.9114724451599137,1.0332490794965792,0
smt_40859,5.478861267565569,286.65,1.911341799255388,1.0331674886061781,0
smt_40858,5.4784815713927015,286.65,1.9112093394009075,1.033084938580092,0
smt_40375,3.1304569389323427,163.8,1.9111458723640673,0.9512569522275038,0
smt_40857,5.47801555788912,286.65,1.911046767098943,1.0329838618080263,0
smt_40856,5.477545860810429,286.65,1.9108829097542055,1.0328822538711,0
smt_40374,3.1299051865809546,163.8,1.9108090272166998,0.9509292298273055,0
smt_40855,5.477087460583097,286.65,1.9107229934006968,1.0327833495693766,0
smt_40854,5.476653960108014,286.65,1.9105717635123025,1.032690054296357,0
smt_40358,3.129356304703747,163.8,1.910473934495572,0.9506039560972819,0
smt_40853,5.476185930835426,286.65,1.9104084879942183,1.0325895868463568,0
smt_40852,5.475715141566797,286.65,1.910244249630838,1.032488798801474,0
smt_22899,5.475492804630198,286.65,1.9101666857248207,1.0251851461285093,0
smt_5757,5.475459590603471,286.65,1.910155098762767,1.025426795062814,0
smt_40357,3.128778422832242,163.8,1.910121137260221,0.950262302850926,0
smt_5956,5.474932171940872,286.65,1.9099711048110493,1.0250460459169817,0
smt_6028,5.474875732176247,286.65,1.9099514153763293,1.0252828694717138,0
smt_40356,3.1282917217006037,163.8,1.9098240059222245,0.9499752023328272,0
smt_22898,5.474282670383882,286.65,1.9097445213270128,1.0251370677608562,0
smt_16985,5.47380033285347,286.65,1.9095762542659938,1.0250187797245611,0
smt_40355,3.1277359018072115,163.8,1.9094846775379801,0.9496480547287884,0
smt_6106,5.473244884572903,286.65,1.9093824819720577,1.024882888213352,0
smt_6021,5.472694691516852,286.65,1.909190543002565,1.0247486274982642,0
smt_40354,3.1271711321957865,163.8,1.909139885345413,0.949316436299476,0
smt_6212,5.472159733934641,286.65,1.9090039190422612,1.0246184148944943,0
smt_6044,5.471603915313393,286.65,1.9088100175522043,1.024483470493843,0
smt_40353,3.126599805804765,163.8,1.908791090234899,0.9489817898827947,0
smt_6029,5.471062010950479,286.65,1.9086209701554084,1.024352244710124,0
smt_40352,3.1261228587150454,163.8,1.9084999137454488,0.9487030615140455,0
smt_19276,5.47052053516149,286.65,1.9084320722698378,1.0242214593754064,0
smt_40351,3.1256708773427144,163.8,1.908223978841706,0.9484394605064468,0
smt_22896,5.4699023161444655,286.65,1.9082164019342283,1.0240725505292592,0
smt_6693,5.469485081965575,286.65,1.9080708466651233,1.0239723015750113,0
smt_41231,5.4694681668490714,286.65,1.9080649457000074,1.0239682420370744,0
...